Circuit: * C:\Users\utilisateur\Documents\TD\Draft1.asc

Direct Newton iteration for .op point succeeded.

Date: Thu Apr 27 16:35:05 2023
Total elapsed time: 0.070 seconds.

tnom = 27
temp = 27
method = modified trap
totiter = 2098
traniter = 2082
tranpoints = 1042
accept = 1042
rejected = 0
matrix size = 8
fillins = 0
solver = Normal
Avg thread counts: 1.3/1.6/1.6/1.3
Matrix Compiler1: 318 bytes object code size  0.1/0.1/[0.1]
Matrix Compiler2: 596 bytes object code size  0.1/0.2/[0.1]

