Circuit: * C:\Users\utilisateur\Documents\TD\Full SubStractor 4 bits\Full Substractor 4 Bits.asc

WARNING: Less than two connections to node !b.  This node is used by a§not_2.
WARNING: Less than two connections to node d.  This node is used by a§xor_2.
WARNING: Less than two connections to node bout.  This node is used by a§xor_3.
Direct Newton iteration for .op point succeeded.

Date: Fri Apr 28 15:52:37 2023
Total elapsed time: 0.039 seconds.

tnom = 27
temp = 27
method = modified trap
totiter = 2933
traniter = 2927
tranpoints = 1455
accept = 1377
rejected = 78
matrix size = 14
fillins = 0
solver = Normal
Avg thread counts: 1.2/1.4/1.4/1.2
Matrix Compiler1:      16 opcodes  0.1/[0.1]/0.1
Matrix Compiler2: off  [0.0]/0.1/0.1

