Circuit: * C:\Users\utilisateur\Documents\TD\Modélisation Porte Logique\Porte.asc

Direct Newton iteration for .op point succeeded.

Date: Thu Apr 27 15:53:29 2023
Total elapsed time: 0.053 seconds.

tnom = 27
temp = 27
method = modified trap
totiter = 2088
traniter = 2082
tranpoints = 1042
accept = 1042
rejected = 0
matrix size = 13
fillins = 0
solver = Normal
Avg thread counts: 1.3/1.6/1.6/1.3
Matrix Compiler1: 710 bytes object code size  0.2/0.2/[0.1]
Matrix Compiler2: 1.00 KB object code size  0.2/0.2/[0.1]

