Circuit: * C:\Users\utilisateur\Documents\TD\Modélisation Porte Logique\Porte AND.asc

Direct Newton iteration for .op point succeeded.

Date: Thu Apr 27 16:39:10 2023
Total elapsed time: 0.059 seconds.

tnom = 27
temp = 27
method = modified trap
totiter = 4346
traniter = 4334
tranpoints = 1594
accept = 1480
rejected = 114
matrix size = 8
fillins = 0
solver = Normal
Avg thread counts: 1.2/1.4/1.4/1.2
Matrix Compiler1: 318 bytes object code size  0.1/0.1/[0.1]
Matrix Compiler2: off  [0.0]/0.1/0.1

