Circuit: * C:\Users\utilisateur\Documents\TD\Modélisation Porte Logique\Porte OR.asc

Direct Newton iteration for .op point succeeded.

Date: Fri Apr 28 10:04:09 2023
Total elapsed time: 0.065 seconds.

tnom = 27
temp = 27
method = modified trap
totiter = 3991
traniter = 3981
tranpoints = 1748
accept = 1580
rejected = 168
matrix size = 8
fillins = 0
solver = Normal
Avg thread counts: 1.2/1.4/1.4/1.2
Matrix Compiler1: 354 bytes object code size  0.1/0.1/[0.1]
Matrix Compiler2: 624 bytes object code size  0.1/0.1/[0.1]

