Circuit: * C:\Users\utilisateur\Documents\TD\Modélisation Porte Logique\Porte NAND.asc

Direct Newton iteration for .op point succeeded.

Date: Fri Apr 28 10:23:19 2023
Total elapsed time: 0.060 seconds.

tnom = 27
temp = 27
method = modified trap
totiter = 4559
traniter = 4546
tranpoints = 1735
accept = 1591
rejected = 144
matrix size = 8
fillins = 0
solver = Normal
Avg thread counts: 1.1/1.4/1.4/1.1
Matrix Compiler1: 318 bytes object code size  0.1/0.1/[0.1]
Matrix Compiler2: off  [0.0]/0.1/0.1

